data/three-wire/network_21/Feeder_5/LineCode.txt
! Subset of available target linecodes, which are closest to the original ones in terms of positive sequence impedance
! ---------------------------------------------------------------------------------------------------------------------------------------------------------------------------------------------------
! original name: BS 5467 1997 table 10 35 (50 Hz)
New LineCode.LC3 nphases=3 Units=km Normamps=129
~ Rmatrix=(0.8116586312898465 0.2804654788914415 0.2865887166768853 | 0.2804654788914415 0.798761925106297 0.2805241839239158 | 0.2865887166768853 0.2805241839239158 0.8117788036717444)
~ Xmatrix=(0.2624332146798262 0.20719203457973917 0.16864022049264266 | 0.20719203457973917 0.2908016997286811 0.2072410312795302 | 0.16864022049264266 0.2072410312795302 0.26252820689216805)
~ Cmatrix=(0.0 0.0 0.0 | 0.0 0.0 0.0 | 0.0 0.0 0.0)

! original name: BS 6480 1988 table 17 Cu 120 (50 Hz)
New LineCode.LC5 nphases=3 Units=km
~ Rmatrix=(0.28624372507521406 0.12998859917512695 0.12119153205667876 | 0.12998859917512695 0.2941406352699749 0.1299884911853283 | 0.12119153205667876 0.1299884911853283 0.28624433902157953)
~ Xmatrix=(0.12239538863209254 0.07930352037524346 0.026869314711363557 | 0.07930352037524346 0.16829225790114147 0.07930355564647984 | 0.026869314711363557 0.07930355564647984 0.12239424079936612)
~ Cmatrix=(0.0 0.0 0.0 | 0.0 0.0 0.0 | 0.0 0.0 0.0)

! original name: BS 6480 1988 table 17 Cu 16 (50 Hz)
New LineCode.LC6 nphases=3 Units=km Normamps=58
~ Rmatrix=(1.7933236711472256 0.6363723759193842 0.6399235094508074 | 0.6363723759193842 1.784886510251047 0.6363722249590626 | 0.6399235094508074 0.6363722249590626 1.7933243477547518)
~ Xmatrix=(0.31879625459756056 0.251481213905138 0.20435482237859037 | 0.251481213905138 0.3529353602963323 0.25148177638394376 | 0.20435482237859037 0.25148177638394376 0.3188003901594534)
~ Cmatrix=(0.0 0.0 0.0 | 0.0 0.0 0.0 | 0.0 0.0 0.0)

! original name: Waveform 4-core 300 IEC 60287 (50 Hz)
New LineCode.LC8 nphases=3 Units=km Normamps=419
~ Rmatrix=(0.16985456261876042 0.06410019258565515 0.06319856261876039 | 0.06410019258565515 0.17321094309067292 0.06410019258565515 | 0.06319856261876039 0.06410019258565515 0.16985456261876042)
~ Xmatrix=(0.09071426854225961 0.04262044882571683 0.008149268542259613 | 0.04262044882571683 0.11502590419087233 0.04262044882571683 | 0.008149268542259613 0.04262044882571683 0.09071426854225961)
~ Cmatrix=(0.0 0.0 0.0 | 0.0 0.0 0.0 | 0.0 0.0 0.0)
! ---------------------------------------------------------------------------------------------------------------------------------------------------------------------------------------------------